*Heading
** Job name: Job-2 Model name: Model-1
** Generated by: Abaqus/CAE 2023
*Preprint, echo=NO, model=NO, history=NO, contact=NO
**
** PARTS
**
*Part, name=Wing_box_merge
*Node
      1,          60.,           0.,         -70.
      2,          30.,           0.,         -70.
      3,          30.,           0.,         -60.
      4,          60.,           0.,         -60.
      5,           0.,           0.,         -70.
      6,           0.,           0.,         -80.
      7,          30.,           0.,         -80.
      8,          60.,          20.,         -80.
      9,          60.,           0.,         -80.
     10,   34.1970215,   12.3211918,         -80.
     11,          30.,          20.,         -80.
     12,          10.,        13.75,         -80.
     13,           0.,          20.,         -80.
     14,           0.,           0.,        -100.
     15,           0.,          20.,        -100.
     16,          30.,          20.,        -100.
     17,          60.,          20.,         -60.
     18,          30.,          20.,         -60.
     19,          30.,           0.,        -100.
     20,           0.,           0.,         -60.
** ... 1176 like lines cut
*Element, type=S4R
 1,   1,  50, 436,  61
 2,  50,  51, 437, 436
 3,  51,  52, 438, 437
 4,  52,  53, 439, 438
 5,  53,  54, 440, 439
 6,  54,   2,  55, 440
 7,  61, 436,  60,   4
 8, 436, 437,  59,  60
 9, 437, 438,  58,  59
10, 438, 439,  57,  58
11, 439, 440,  56,  57
12, 440,  55,   3,  56
13,   2,  62, 441,  73
14,  62,  63, 442, 441
15,  63,  64, 443, 442
16,  64,  65, 444, 443
17,  65,  66, 445, 444
18,  66,   5,  67, 445
19,  73, 441,  72,   7
20, 441, 442,  71,  72
** ... 1232 like lines cut
*Nset, nset=ribs
   3,   4,   6,   7,   8,   9,  10,  11,  12,  13,  17,  18,  20,  22,  23,  24
  25,  26,  27,  28,  29,  31,  32,  33,  34,  35,  36,  37,  38,  39,  40,  41
  56,  57,  58,  59,  60,  68,  69,  70,  71,  72,  74,  75,  76,  77,  78,  79
  80,  81,  82,  83,  84,  85,  86,  87,  88,  89,  90,  91,  92,  93,  94,  95
  96,  97,  98,  99, 100, 101, 102, 103, 104, 105, 106, 107, 108, 109, 110, 111
 112, 113, 114, 115, 136, 137, 138, 139, 140, 141, 151, 152, 153, 154, 155, 158
 159, 160, 169, 170, 171, 172, 173, 174, 175, 176, 177, 178, 179, 180, 181, 182
 183, 184, 185, 186, 187, 188, 189, 190, 191, 192, 193, 194, 195, 196, 200, 201
 202, 209, 210, 211, 212, 213, 220, 221, 222, 226, 227, 228, 229, 230, 231, 238
 239, 240, 241, 242, 243, 244, 245, 246, 247, 248, 249, 250, 251, 252, 253, 254
 255, 256, 257, 258, 259, 260, 261, 262, 263, 264, 265, 266, 267, 271, 272, 273
 280, 281, 282, 283, 284, 285, 286, 287, 288, 289, 299, 300, 301, 308, 309, 310
 311, 312, 313, 314, 315, 316, 317, 318, 319, 320, 321, 322, 323, 324, 325, 326
 327, 328, 329, 330, 331, 332, 333, 334, 335, 336, 337, 338, 446, 447, 448, 449
 450, 451, 452, 453, 454, 455, 456, 457, 458, 459, 460, 461, 462, 463, 464, 465
 466, 467, 468, 469, 470, 471, 472, 473, 554, 555, 556, 557, 558, 559, 560, 561
 562, 563, 564, 565, 566, 567, 568, 569, 570, 571, 572, 573, 574, 575, 576, 577
 578, 579, 580, 581, 662, 663, 664, 665, 666, 667, 668, 669, 670, 671, 672, 673
 674, 675, 676, 677, 678, 679, 680, 681, 682, 683, 684, 685, 686, 687, 688, 689
 780, 781, 782, 783, 784, 785, 786, 787, 788, 789, 790, 791, 792, 793, 794, 795
 796, 797, 798, 799, 800, 801, 802, 803, 804, 805, 806, 807
*Elset, elset=ribs
  25,  26,  27,  28,  29,  30,  31,  32,  33,  34,  35,  36,  37,  38,  39,  40
  41,  42,  43,  44,  45,  46,  47,  48,  49,  50,  51,  52,  53,  54,  55,  56
  57,  58,  59,  60,  61,  62,  63,  64,  65,  66,  67,  68,  69,  70,  71,  72
  73,  74,  75,  76,  77,  78,  79,  80,  81,  82, 219, 220, 221, 222, 223, 224
 225, 226, 227, 228, 229, 230, 231, 232, 233, 234, 235, 236, 237, 238, 239, 240
 241, 242, 243, 244, 245, 246, 247, 248, 249, 250, 251, 252, 253, 254, 255, 256
 257, 258, 259, 260, 261, 262, 263, 264, 265, 266, 267, 268, 269, 270, 271, 272
 273, 274, 275, 276, 413, 414, 415, 416, 417, 418, 419, 420, 421, 422, 423, 424
 425, 426, 427, 428, 429, 430, 431, 432, 433, 434, 435, 436, 437, 438, 439, 440
 441, 442, 443, 444, 445, 446, 447, 448, 449, 450, 451, 452, 453, 454, 455, 456
 457, 458, 459, 460, 461, 462, 463, 464, 465, 466, 467, 468, 469, 470, 619, 620
 621, 622, 623, 624, 625, 626, 627, 628, 629, 630, 631, 632, 633, 634, 635, 636
 637, 638, 639, 640, 641, 642, 643, 644, 645, 646, 647, 648, 649, 650, 651, 652
 653, 654, 655, 656, 657, 658, 659, 660, 661, 662, 663, 664, 665, 666, 667, 668
 669, 670, 671, 672, 673, 674, 675, 676
*Nset, nset=inner
    1,    2,    3,    4,    5,    6,    7,    8,    9,   11,   13,   14,   15,   16,   17,   18
   19,   20,   21,   23,   25,   26,   27,   28,   29,   30,   32,   34,   35,   36,   37,   38
   39,   42,   43,   44,   45,   46,   49,   55,   61,   67,   73,   74,   75,   76,   82,   83
   84,  104,  105,  106,  116,  117,  118,  119,  120,  121,  122,  123,  124,  125,  126,  127
  133,  134,  135,  142,  143,  144,  145,  146,  147,  148,  149,  150,  156,  157,  158,  159
  160,  161,  162,  163,  169,  170,  171,  177,  178,  179,  197,  198,  199,  200,  201,  202
  203,  204,  205,  206,  207,  208,  214,  215,  216,  217,  218,  219,  220,  221,  222,  223
  224,  225,  232,  233,  234,  235,  236,  237,  257,  258,  259,  268,  269,  270,  271,  272
  273,  274,  275,  276,  277,  278,  279,  290,  291,  292,  293,  294,  295,  296,  297,  298
  299,  300,  301,  308,  309,  310,  339,  340,  341,  342,  343,  344,  345,  346,  347,  348
  349,  350,  351,  352,  353,  359,  360,  361,  367,  368,  369,  406,  407,  408,  409,  410
  411,  422,  423,  424,  474,  475,  476,  477,  478,  479,  480,  481,  482,  516,  517,  518
  519,  520,  521,  522,  523,  524,  530,  531,  532,  533,  534,  535,  536,  537,  538,  582
  583,  584,  585,  586,  587,  588,  589,  590,  626,  627,  628,  629,  630,  631,  632,  633
  634,  653,  654,  655,  656,  657,  658,  659,  660,  661,  690,  691,  692,  693,  694,  695
  696,  697,  698,  744,  745,  746,  747,  748,  749,  750,  751,  752,  753,  754,  755,  756
  757,  758,  759,  760,  761,  826,  827,  828,  829,  830,  831,  832,  833,  834,  850,  851
  852,  853,  854,  855,  856,  857,  858,  889,  890,  891,  892,  893,  894,  895,  896,  897
  898,  899,  900,  901,  902,  903,  904,  905,  906, 1021, 1022, 1023, 1024, 1025, 1026, 1027
 1028, 1029, 1140, 1141, 1142, 1143, 1144, 1145, 1146, 1147, 1148
*Elset, elset=inner
   83,   84,   85,   86,   87,   88,   89,   90,   91,   92,   93,   94,   95,   96,   97,   98
  151,  152,  153,  154,  155,  156,  157,  158,  159,  160,  161,  162,  163,  164,  165,  166
  179,  180,  181,  182,  183,  184,  185,  186,  187,  188,  189,  190,  191,  192,  193,  194
  277,  278,  279,  280,  281,  282,  283,  284,  285,  286,  287,  288,  289,  290,  291,  292
  353,  354,  355,  356,  357,  358,  359,  360,  361,  362,  363,  364,  365,  366,  367,  368
  397,  398,  399,  400,  401,  402,  403,  404,  405,  406,  407,  408,  409,  410,  411,  412
  471,  472,  473,  474,  475,  476,  477,  478,  479,  480,  481,  482,  483,  484,  485,  486
  559,  560,  561,  562,  563,  564,  565,  566,  567,  568,  569,  570,  571,  572,  573,  574
  575,  576,  577,  578,  579,  580,  581,  582,  583,  584,  585,  586,  587,  588,  589,  590
  705,  706,  707,  708,  709,  710,  711,  712,  713,  714,  715,  716,  717,  718,  719,  720
  745,  746,  747,  748,  749,  750,  751,  752,  753,  754,  755,  756,  757,  758,  759,  760
  809,  810,  811,  812,  813,  814,  815,  816,  817,  818,  819,  820,  821,  822,  823,  824
  825,  826,  827,  828,  829,  830,  831,  832,  833,  834,  835,  836,  837,  838,  839,  840
 1001, 1002, 1003, 1004, 1005, 1006, 1007, 1008, 1009, 1010, 1011, 1012, 1013, 1014, 1015, 1016
 1161, 1162, 1163, 1164, 1165, 1166, 1167, 1168, 1169, 1170, 1171, 1172, 1173, 1174, 1175, 1176
*Nset, nset=outer
    1,    2,    3,    4,    5,    6,    7,    8,    9,   11,   13,   14,   15,   16,   17,   18
   19,   20,   21,   23,   25,   26,   27,   28,   29,   30,   32,   34,   35,   36,   37,   38
   39,   42,   43,   44,   45,   46,   47,   48,   49,   50,   51,   52,   53,   54,   55,   56
   57,   58,   59,   60,   61,   62,   63,   64,   65,   66,   67,   68,   69,   70,   71,   72
   73,   77,   78,   79,   80,   81,   85,   86,   87,   88,   89,   90,   99,  100,  101,  102
  103,  116,  117,  118,  122,  123,  124,  125,  126,  127,  128,  129,  130,  131,  132,  133
  134,  135,  136,  137,  138,  139,  140,  141,  142,  143,  144,  145,  146,  147,  151,  152
  153,  154,  155,  156,  157,  161,  162,  163,  164,  165,  166,  167,  168,  172,  173,  174
  175,  176,  197,  198,  199,  203,  204,  205,  206,  207,  208,  209,  210,  211,  212,  213
  214,  215,  216,  217,  218,  219,  223,  224,  225,  226,  227,  228,  229,  230,  231,  232
  233,  234,  238,  239,  240,  241,  242,  252,  253,  254,  255,  256,  268,  269,  270,  274
  275,  276,  277,  278,  279,  280,  281,  282,  283,  284,  285,  286,  287,  288,  289,  290
  291,  292,  293,  294,  295,  296,  297,  298,  302,  303,  304,  305,  306,  307,  311,  312
  313,  314,  315,  316,  325,  326,  327,  328,  329,  339,  340,  341,  342,  343,  344,  348
  349,  350,  351,  352,  353,  354,  355,  356,  357,  358,  359,  360,  361,  362,  363,  364
  365,  366,  367,  368,  369,  370,  371,  372,  373,  374,  375,  376,  377,  378,  379,  380
  381,  382,  383,  384,  385,  386,  387,  388,  389,  390,  391,  392,  393,  394,  395,  396
  397,  398,  399,  400,  401,  402,  403,  404,  405,  409,  410,  411,  412,  413,  414,  415
  416,  417,  418,  419,  420,  421,  425,  426,  427,  428,  429,  430,  431,  432,  433,  434
  435,  436,  437,  438,  439,  440,  441,  442,  443,  444,  445,  483,  484,  485,  486,  487
** ... 32 like lines cut
*Elset, elset=outer
    1,    2,    3,    4,    5,    6,    7,    8,    9,   10,   11,   12,   13,   14,   15,   16
   17,   18,   19,   20,   21,   22,   23,   24,   99,  100,  101,  102,  103,  104,  105,  106
  107,  108,  109,  110,  111,  112,  113,  114,  115,  116,  117,  118,  119,  120,  121,  122
  123,  124,  125,  126,  127,  128,  129,  130,  131,  132,  133,  134,  135,  136,  137,  138
  139,  140,  141,  142,  143,  144,  145,  146,  147,  148,  149,  150,  167,  168,  169,  170
  171,  172,  173,  174,  175,  176,  177,  178,  195,  196,  197,  198,  199,  200,  201,  202
  203,  204,  205,  206,  207,  208,  209,  210,  211,  212,  213,  214,  215,  216,  217,  218
  293,  294,  295,  296,  297,  298,  299,  300,  301,  302,  303,  304,  305,  306,  307,  308
  309,  310,  311,  312,  313,  314,  315,  316,  317,  318,  319,  320,  321,  322,  323,  324
  325,  326,  327,  328,  329,  330,  331,  332,  333,  334,  335,  336,  337,  338,  339,  340
  341,  342,  343,  344,  345,  346,  347,  348,  349,  350,  351,  352,  369,  370,  371,  372
  373,  374,  375,  376,  377,  378,  379,  380,  381,  382,  383,  384,  385,  386,  387,  388
  389,  390,  391,  392,  393,  394,  395,  396,  487,  488,  489,  490,  491,  492,  493,  494
  495,  496,  497,  498,  499,  500,  501,  502,  503,  504,  505,  506,  507,  508,  509,  510
  511,  512,  513,  514,  515,  516,  517,  518,  519,  520,  521,  522,  523,  524,  525,  526
  527,  528,  529,  530,  531,  532,  533,  534,  535,  536,  537,  538,  539,  540,  541,  542
  543,  544,  545,  546,  547,  548,  549,  550,  551,  552,  553,  554,  555,  556,  557,  558
  591,  592,  593,  594,  595,  596,  597,  598,  599,  600,  601,  602,  603,  604,  605,  606
  607,  608,  609,  610,  611,  612,  613,  614,  615,  616,  617,  618,  677,  678,  679,  680
  681,  682,  683,  684,  685,  686,  687,  688,  689,  690,  691,  692,  693,  694,  695,  696
** ... 29 like lines cut
** Section: alum_out
*Shell Section, elset=outer, material=aluminium
0.5, 5
*Orientation, name=Ori-1
1., 0., 0., 0., 1., 0.
3, 0.
** Region: (carbon_epoxy-1: Generated From Layup)
*Elset, elset=carbon_epoxy-1
  25,  26,  27,  28,  29,  30,  31,  32,  33,  34,  35,  36,  37,  38,  39,  40
  41,  42,  43,  44,  45,  46,  47,  48,  49,  50,  51,  52,  53,  54,  55,  56
  57,  58,  59,  60,  61,  62,  63,  64,  65,  66,  67,  68,  69,  70,  71,  72
  73,  74,  75,  76,  77,  78,  79,  80,  81,  82, 219, 220, 221, 222, 223, 224
 225, 226, 227, 228, 229, 230, 231, 232, 233, 234, 235, 236, 237, 238, 239, 240
 241, 242, 243, 244, 245, 246, 247, 248, 249, 250, 251, 252, 253, 254, 255, 256
 257, 258, 259, 260, 261, 262, 263, 264, 265, 266, 267, 268, 269, 270, 271, 272
 273, 274, 275, 276, 413, 414, 415, 416, 417, 418, 419, 420, 421, 422, 423, 424
 425, 426, 427, 428, 429, 430, 431, 432, 433, 434, 435, 436, 437, 438, 439, 440
 441, 442, 443, 444, 445, 446, 447, 448, 449, 450, 451, 452, 453, 454, 455, 456
 457, 458, 459, 460, 461, 462, 463, 464, 465, 466, 467, 468, 469, 470, 619, 620
 621, 622, 623, 624, 625, 626, 627, 628, 629, 630, 631, 632, 633, 634, 635, 636
 637, 638, 639, 640, 641, 642, 643, 644, 645, 646, 647, 648, 649, 650, 651, 652
 653, 654, 655, 656, 657, 658, 659, 660, 661, 662, 663, 664, 665, 666, 667, 668
 669, 670, 671, 672, 673, 674, 675, 676
** Section: carbon_epoxy-1
*Shell Section, elset=carbon_epoxy-1, composite, orientation=Ori-1, layup=carbon_epoxy
0.01, 3, carbin-epoxy, 0., Ply-1
0.01, 3, carbin-epoxy, 90., Ply-2
0.01, 3, carbin-epoxy, 45., Ply-3
0.01, 3, carbin-epoxy, -45., Ply-4
0.01, 3, carbin-epoxy, 0., Ply-5
0.01, 3, carbin-epoxy, 90., Ply-6
0.01, 3, carbin-epoxy, 45., Ply-7
0.01, 3, carbin-epoxy, -45., Ply-8
0.01, 3, carbin-epoxy, 0., Ply-9
0.01, 3, carbin-epoxy, 90., Ply-10
0.01, 3, carbin-epoxy, 45., Ply-11
0.01, 3, carbin-epoxy, -45., Ply-12
0.01, 3, carbin-epoxy, 0., Ply-13
0.01, 3, carbin-epoxy, 90., Ply-14
0.01, 3, carbin-epoxy, 45., Ply-15
0.01, 3, carbin-epoxy, -45., Ply-16
0.01, 3, carbin-epoxy, 0., Ply-17
0.01, 3, carbin-epoxy, 90., Ply-18
0.01, 3, carbin-epoxy, 45., Ply-19
0.01, 3, carbin-epoxy, -45., Ply-20
** Section: alum_in
*Shell Section, elset=inner, material=aluminium
0.1, 5
*End Part
**  
**
** ASSEMBLY
**
*Assembly, name=Assembly
**  
*Instance, name=Wing_box_merge-4, part=Wing_box_merge
*End Instance
**  
*Nset, nset=_PickedSet43, internal, instance=Wing_box_merge-4
  14,  15,  16,  19,  21,  30,  48, 128, 129, 130, 131, 132, 164, 165, 166, 167
 168, 302, 303, 304, 305, 306, 307, 370, 371, 372, 373, 374, 397, 398, 399, 403
 404, 405, 417, 418, 419, 420, 421
*Elset, elset=_PickedSet43, internal, instance=Wing_box_merge-4
  102,  106,  110,  114,  118,  122,  198,  202,  206,  210,  214,  218,  594,  598,  602,  606
  610,  614,  618,  788,  792,  796,  800,  804,  808,  917,  918,  919,  920,  997,  998,  999
 1000, 1131, 1132, 1133, 1134, 1135, 1136
*Nset, nset=_PickedSet44, internal, instance=Wing_box_merge-4
 1, 5
*Elset, elset=_Surf-5_SPOS, internal, instance=Wing_box_merge-4
   99,  100,  101,  102,  103,  104,  105,  106,  107,  108,  109,  110,  111,  112,  113,  114
  115,  116,  117,  118,  119,  120,  121,  122,  317,  318,  319,  320,  321,  322,  323,  324
  325,  326,  327,  328,  329,  330,  331,  332,  333,  334,  335,  336,  337,  338,  339,  340
  511,  512,  513,  514,  515,  516,  517,  518,  519,  520,  521,  522,  523,  524,  525,  526
  527,  528,  529,  530,  531,  532,  533,  534,  761,  762,  763,  764,  765,  766,  767,  768
  769,  770,  771,  772,  773,  774,  775,  776,  777,  778,  779,  780,  781,  782,  783,  784
 1137, 1138, 1139, 1140, 1141, 1142, 1143, 1144, 1145, 1146, 1147, 1148, 1149, 1150, 1151, 1152
 1153, 1154, 1155, 1156, 1157, 1158, 1159, 1160
*Elset, elset=_Surf-5_SNEG, internal, instance=Wing_box_merge-4
  123,  124,  125,  126,  127,  128,  129,  130,  131,  132,  133,  134,  135,  136,  137,  138
  139,  140,  141,  142,  143,  144,  145,  146,  147,  148,  149,  150,  369,  370,  371,  372
  373,  374,  375,  376,  377,  378,  379,  380,  381,  382,  383,  384,  385,  386,  387,  388
  389,  390,  391,  392,  393,  394,  395,  396,  591,  592,  593,  594,  595,  596,  597,  598
  599,  600,  601,  602,  603,  604,  605,  606,  607,  608,  609,  610,  611,  612,  613,  614
  615,  616,  617,  618,  677,  678,  679,  680,  681,  682,  683,  684,  685,  686,  687,  688
  689,  690,  691,  692,  693,  694,  695,  696,  697,  698,  699,  700,  701,  702,  703,  704
 1225, 1226, 1227, 1228, 1229, 1230, 1231, 1232, 1233, 1234, 1235, 1236, 1237, 1238, 1239, 1240
 1241, 1242, 1243, 1244, 1245, 1246, 1247, 1248, 1249, 1250, 1251, 1252
*Surface, type=ELEMENT, name=Surf-5
_Surf-5_SPOS, SPOS
_Surf-5_SNEG, SNEG
*Elset, elset=_Surf-6_SPOS, internal, instance=Wing_box_merge-4
   13,   14,   15,   16,   17,   18,   19,   20,   21,   22,   23,   24,  123,  124,  125,  126
  127,  128,  129,  130,  131,  132,  133,  134,  135,  136,  137,  138,  139,  140,  141,  142
  143,  144,  145,  146,  147,  148,  149,  150,  167,  168,  169,  170,  171,  172,  173,  174
  175,  176,  177,  178,  293,  294,  295,  296,  297,  298,  299,  300,  301,  302,  303,  304
  305,  306,  307,  308,  309,  310,  311,  312,  313,  314,  315,  316,  369,  370,  371,  372
  373,  374,  375,  376,  377,  378,  379,  380,  381,  382,  383,  384,  385,  386,  387,  388
  389,  390,  391,  392,  393,  394,  395,  396,  487,  488,  489,  490,  491,  492,  493,  494
  495,  496,  497,  498,  499,  500,  501,  502,  503,  504,  505,  506,  507,  508,  509,  510
  591,  592,  593,  594,  595,  596,  597,  598,  599,  600,  601,  602,  603,  604,  605,  606
  607,  608,  609,  610,  611,  612,  613,  614,  615,  616,  617,  618,  677,  678,  679,  680
  681,  682,  683,  684,  685,  686,  687,  688,  689,  690,  691,  692,  693,  694,  695,  696
  697,  698,  699,  700,  701,  702,  703,  704,  785,  786,  787,  788,  789,  790,  791,  792
  793,  794,  795,  796,  797,  798,  799,  800,  801,  802,  803,  804,  805,  806,  807,  808
 1177, 1178, 1179, 1180, 1181, 1182, 1183, 1184, 1185, 1186, 1187, 1188, 1189, 1190, 1191, 1192
 1193, 1194, 1195, 1196, 1197, 1198, 1199, 1200, 1225, 1226, 1227, 1228, 1229, 1230, 1231, 1232
 1233, 1234, 1235, 1236, 1237, 1238, 1239, 1240, 1241, 1242, 1243, 1244, 1245, 1246, 1247, 1248
 1249, 1250, 1251, 1252
*Elset, elset=_Surf-6_SNEG, internal, instance=Wing_box_merge-4
    1,    2,    3,    4,    5,    6,    7,    8,    9,   10,   11,   12,   99,  100,  101,  102
  103,  104,  105,  106,  107,  108,  109,  110,  111,  112,  113,  114,  115,  116,  117,  118
  119,  120,  121,  122,  195,  196,  197,  198,  199,  200,  201,  202,  203,  204,  205,  206
  207,  208,  209,  210,  211,  212,  213,  214,  215,  216,  217,  218,  317,  318,  319,  320
  321,  322,  323,  324,  325,  326,  327,  328,  329,  330,  331,  332,  333,  334,  335,  336
  337,  338,  339,  340,  341,  342,  343,  344,  345,  346,  347,  348,  349,  350,  351,  352
  511,  512,  513,  514,  515,  516,  517,  518,  519,  520,  521,  522,  523,  524,  525,  526
  527,  528,  529,  530,  531,  532,  533,  534,  535,  536,  537,  538,  539,  540,  541,  542
  543,  544,  545,  546,  547,  548,  549,  550,  551,  552,  553,  554,  555,  556,  557,  558
  721,  722,  723,  724,  725,  726,  727,  728,  729,  730,  731,  732,  733,  734,  735,  736
  737,  738,  739,  740,  741,  742,  743,  744,  761,  762,  763,  764,  765,  766,  767,  768
  769,  770,  771,  772,  773,  774,  775,  776,  777,  778,  779,  780,  781,  782,  783,  784
 1137, 1138, 1139, 1140, 1141, 1142, 1143, 1144, 1145, 1146, 1147, 1148, 1149, 1150, 1151, 1152
 1153, 1154, 1155, 1156, 1157, 1158, 1159, 1160, 1201, 1202, 1203, 1204, 1205, 1206, 1207, 1208
 1209, 1210, 1211, 1212, 1213, 1214, 1215, 1216, 1217, 1218, 1219, 1220, 1221, 1222, 1223, 1224
*Surface, type=ELEMENT, name=Surf-6
_Surf-6_SPOS, SPOS
_Surf-6_SNEG, SNEG
*End Assembly
** 
** MATERIALS
** 
*Material, name=aluminium
*Density
2700.,
*Elastic
 7e+10, 0.3
*Material, name=carbin-epoxy
*Damage Initiation, criterion=HASHIN
 2.899e+09, 1.414e+09,   3.7e+07,  1.69e+08,  1.34e+08,   1.2e+08
*Density
1600.,
*Elastic, type=LAMINA
 1.62e+11, 7.93e+09,     0.35,  5.3e+09,  5.3e+09,    4e+09
** 
** BOUNDARY CONDITIONS
** 
** Name: BC-1 Type: Symmetry/Antisymmetry/Encastre
*Boundary
_PickedSet43, ENCASTRE
** ----------------------------------------------------------------
** 
** STEP: load
** 
*Step, name=load, nlgeom=NO, inc=10000000
step-1
*Static, stabilize, factor=1e-05, allsdtol=0.05, continue=NO
0.01, 1., 1e-06, 1.
** 
** LOADS
** 
** Name: Load-1   Type: Concentrated force
*Cload
_PickedSet44, 2, -43164.
** Name: lift   Type: Pressure Using Field: AnalyticalField-1
*Dload
Wing_box_merge-4.13, P, -682253.
Wing_box_merge-4.14, P, -563369.
Wing_box_merge-4.15, P, -441695.
Wing_box_merge-4.16, P, -316687.
Wing_box_merge-4.17, P, -190058.
Wing_box_merge-4.18, P, -63350.5
Wing_box_merge-4.19, P, -683681.
Wing_box_merge-4.20, P, -567123.
Wing_box_merge-4.21, P, -446053.
Wing_box_merge-4.22, P, -318996.
Wing_box_merge-4.23, P, -190360.
Wing_box_merge-4.24, P, -63375.5
Wing_box_merge-4.123, P, -781057.
Wing_box_merge-4.124, P, -860518.
Wing_box_merge-4.125, P, -963776.
Wing_box_merge-4.126, P, -1.09085e+06
Wing_box_merge-4.127, P, -1.21807e+06
Wing_box_merge-4.128, P, -1.33215e+06
Wing_box_merge-4.129, P, -1.43241e+06
Wing_box_merge-4.130, P, -781704.
** ... 480 like lines cut
** Name: pressure   Type: Pressure
*Dsload
Surf-5, P, 69.76
** 
** CONTROLS
** 
*Controls, reset
*Controls, analysis=discontinuous
*Controls, parameters=time incrementation
, , , , , , , 20, , , 
** 
** OUTPUT REQUESTS
** 
*Restart, write, frequency=0
** 
** FIELD OUTPUT: F-Output-2
** 
*Output, field
*Element Output, elset=Wing_box_merge-4.carbon_epoxy-1, directions=YES
2, 5, 8, 11, 14, 17, 20, 23, 26, 29, 32, 35, 38, 41, 44, 47
HSNFCCRT, HSNFTCRT, HSNMCCRT, HSNMTCRT
*Element Output, elset=Wing_box_merge-4.carbon_epoxy-1, directions=YES
50, 53, 56, 59
HSNFCCRT, HSNFTCRT, HSNMCCRT, HSNMTCRT
** 
** FIELD OUTPUT: F-Output-1
** 
*Output, field, variable=PRESELECT
** 
** HISTORY OUTPUT: H-Output-1
** 
*Output, history, variable=PRESELECT
*End Step
